/*--------------------------------*- C++ -*----------------------------------*\
| =========                 |                                                 |
| \\      /  F ield         | OpenFOAM: The Open Source CFD Toolbox           |
|  \\    /   O peration     | Version:  v2012                                 |
|   \\  /    A nd           | Website:  www.openfoam.com                      |
|    \\/     M anipulation  |                                                 |
\*---------------------------------------------------------------------------*/
FoamFile
{
    version     2.0;
    format      ascii;
    class       featureEdgeMesh;
    location    "constant/triSurface";
    object      building.eMesh;
}
// * * * * * * * * * * * * * * * * * * * * * * * * * * * * * * * * * * * * * //


// points:

99
(
(76.6738 89.72537 5)
(76.6738 89.72537 49.9)
(175.1266 53.15396 49.9)
(175.1266 95.39677 49.9)
(141.1324 79.36447 49.9)
(162.5476 107.976 49.9)
(60.817 53.15396 49.9)
(54.06483 84.92027 49.9)
(107.3011 96.23447 49.9)
(119.4787 85.75287 49.9)
(60.817 53.15396 5)
(175.1266 53.15396 5)
(175.1266 95.39677 5)
(162.5476 107.976 5)
(107.3011 96.23447 5)
(119.4787 85.75287 5)
(141.1324 79.36447 5)
(54.06483 84.92027 5)
(96.37769 83.71647 11)
(96.37769 83.71647 19.98274)
(80.96549 69.53447 5)
(77.8631 84.13037 11)
(77.8631 84.13037 19.98274)
(80.96549 69.53447 49.9)
(76.6738 89.72537 19.98274)
(76.6738 89.72537 11)
(145.8886 69.53447 49.9)
(147.7316 77.60387 49.9)
(142.8858 90.72827 49.9)
(107.3011 96.23447 11)
(107.3011 96.23447 19.98274)
(116.8011 88.05757 11)
(116.8011 88.05757 19.98274)
(142.8858 90.72827 5)
(147.7316 77.60387 5)
(145.8886 69.53447 5)
(92.69279 87.28207 11)
(92.69279 87.28207 19.98274)
(175.1266 74.27536 49.9)
(156.075 53.15396 49.9)
(143.2168 89.17107 49.9)
(137.0234 53.15396 49.9)
(144.1321 104.0621 49.9)
(125.7166 100.1483 49.9)
(124.2476 69.53447 49.9)
(117.9718 53.15396 49.9)
(98.9202 53.15396 49.9)
(102.6065 69.53447 49.9)
(79.8686 53.15396 49.9)
(57.44091 69.03712 49.9)
(131.1823 88.24057 49.9)
(65.36932 87.32282 49.9)
(79.8686 53.15396 5)
(60.817 53.15396 27.45)
(98.9202 53.15396 5)
(117.9718 53.15396 5)
(137.0234 53.15396 5)
(60.817 53.15396 32.21129)
(156.075 53.15396 5)
(175.1266 53.15396 27.45)
(175.1266 53.15396 31.29687)
(175.1266 53.15396 35.14373)
(175.1266 95.39677 27.45)
(162.5476 107.976 27.45)
(175.1266 95.39677 35.14373)
(144.1321 104.0621 5)
(125.7166 100.1483 5)
(119.4787 85.75287 27.45)
(131.1823 88.24057 5)
(143.2168 89.17107 5)
(141.1324 79.36447 19.96667)
(141.1324 79.36447 34.93333)
(124.2476 69.53447 5)
(102.6065 69.53447 5)
(175.1266 74.27536 5)
(57.44091 69.03712 5)
(65.36932 87.32282 5)
(85.27795 85.70622 11)
(91.98744 92.97992 11)
(106.5894 85.88702 11)
(85.27795 85.70622 19.98274)
(91.98744 92.97992 19.98274)
(106.5894 85.88702 19.98274)
(96.37769 83.71647 15.49137)
(54.06483 84.92027 27.45)
(54.06483 84.92027 32.21129)
(54.06483 84.92027 32.5414)
(80.96549 69.53447 27.45)
(142.8858 90.72827 24.24286)
(142.8858 90.72827 30.65714)
(142.8858 90.72827 11.41429)
(142.8858 90.72827 17.82857)
(142.8858 90.72827 37.07143)
(142.8858 90.72827 43.48571)
(147.7316 77.60387 19.96667)
(147.7316 77.60387 34.93333)
(145.8886 69.53447 19.96667)
(145.8886 69.53447 34.93333)
(92.69279 87.28207 15.49137)
)


// edges:

118
(
(20 0)
(24 1)
(1 23)
(0 25)
(2 38)
(38 3)
(39 2)
(4 27)
(27 26)
(40 4)
(41 39)
(3 5)
(5 42)
(42 43)
(28 40)
(26 44)
(45 41)
(46 45)
(44 47)
(47 23)
(48 46)
(49 6)
(6 48)
(7 49)
(50 28)
(9 50)
(1 51)
(51 7)
(43 8)
(8 9)
(10 52)
(53 10)
(54 55)
(55 56)
(52 54)
(57 53)
(6 57)
(56 58)
(58 11)
(11 59)
(59 60)
(60 61)
(61 2)
(12 13)
(62 12)
(13 63)
(64 62)
(63 5)
(3 64)
(13 65)
(65 66)
(14 29)
(66 14)
(30 8)
(14 15)
(67 9)
(15 67)
(15 68)
(68 33)
(33 69)
(69 16)
(70 71)
(71 4)
(16 70)
(16 34)
(34 35)
(35 72)
(73 20)
(72 73)
(74 11)
(12 74)
(10 75)
(75 17)
(76 0)
(17 76)
(36 77)
(25 78)
(77 21)
(18 36)
(79 18)
(31 79)
(78 29)
(80 37)
(81 24)
(22 80)
(37 19)
(19 82)
(82 32)
(30 81)
(83 19)
(18 83)
(84 85)
(17 84)
(85 86)
(86 7)
(87 20)
(21 22)
(23 87)
(22 24)
(25 21)
(31 29)
(30 32)
(32 31)
(88 89)
(33 90)
(90 91)
(91 88)
(89 92)
(93 28)
(92 93)
(34 94)
(95 27)
(94 95)
(35 96)
(97 26)
(96 97)
(98 37)
(36 98)
)

// * * * * * * * * * * * * * * * * * * * * * * * * * * * * * * * * * * * * * //


// ************************************************************************* //
