/*--------------------------------*- C++ -*----------------------------------*\
| =========                 |                                                 |
| \\      /  F ield         | OpenFOAM: The Open Source CFD Toolbox           |
|  \\    /   O peration     | Version:  v2012                                 |
|   \\  /    A nd           | Website:  www.openfoam.com                      |
|    \\/     M anipulation  |                                                 |
\*---------------------------------------------------------------------------*/
FoamFile
{
    version     2.0;
    format      ascii;
    class       extendedFeatureEdgeMesh;
    location    "constant/extendedFeatureEdgeMesh";
    object      atrium.extendedFeatureEdgeMesh;
}
// * * * * * * * * * * * * * * * * * * * * * * * * * * * * * * * * * * * * * //

// points

112
(
(107.3011 96.23447 5)
(76.6738 89.72537 5)
(80.96549 69.53447 5)
(142.8858 90.72827 5)
(147.7316 77.60387 5)
(145.8886 69.53447 5)
(142.8858 90.72827 54.253)
(76.6738 89.72537 19.98274)
(107.3011 96.23447 19.98274)
(76.6738 89.72537 54.253)
(80.96549 69.53447 54.253)
(107.3011 96.23447 54.253)
(147.7316 77.60387 54.253)
(145.8886 69.53447 54.253)
(76.6738 89.72537 11)
(107.3011 96.23447 11)
(96.37769 83.71647 19.98274)
(96.37769 83.71647 11)
(119.4787 85.75287 5)
(141.1324 79.36447 5)
(119.4787 85.75287 54.253)
(141.1324 79.36447 54.253)
(92.69279 87.28207 19.98274)
(77.8631 84.13037 19.98274)
(116.8011 88.05756 19.98274)
(116.8011 88.05756 11)
(92.69279 87.28207 11)
(77.8631 84.13037 11)
(142.8858 90.72827 15.49137)
(142.8858 90.72827 11)
(142.8858 90.72827 19.98274)
(87.75456 92.08032 5)
(91.18373 92.8091 5)
(84.06097 91.29533 5)
(80.36739 90.51035 5)
(94.61289 93.5379 5)
(100.957 94.88618 5)
(110.4678 93.50883 5)
(113.6344 90.7832 5)
(102.6065 69.53447 5)
(78.81965 79.62992 5)
(124.2476 69.53447 5)
(116.8011 88.05756 5)
(131.1823 88.24057 5)
(143.2168 89.17107 5)
(142.1746 84.26777 5)
(146.8101 73.56917 5)
(144.432 78.48417 5)
(142.8858 90.72827 8)
(145.8886 69.53447 8)
(145.8886 69.53447 11)
(147.7316 77.60387 8)
(147.7316 77.60387 11)
(147.7316 77.60387 15.49137)
(147.7316 77.60387 19.98274)
(145.8886 69.53447 19.98274)
(145.8886 69.53447 15.49137)
(142.8858 90.72827 25.69445)
(142.8858 90.72827 31.40616)
(142.8858 90.72827 37.11787)
(142.8858 90.72827 42.82958)
(142.8858 90.72827 48.54129)
(143.2168 89.17107 54.253)
(131.1823 88.24057 54.253)
(80.96549 69.53447 11)
(87.75456 92.08032 19.98274)
(94.61289 93.5379 19.98274)
(76.6738 89.72537 37.11787)
(78.81965 79.62992 54.253)
(80.96549 69.53447 19.98274)
(80.96549 69.53447 34.94137)
(80.96549 69.53447 49.9)
(87.75456 92.08032 54.253)
(94.61289 93.5379 54.253)
(107.3011 96.23447 37.11787)
(116.8011 88.05756 54.253)
(147.7316 77.60387 37.11787)
(145.8886 69.53447 37.11787)
(116.8011 88.05756 15.49137)
(92.69279 87.28207 15.49137)
(77.8631 84.13037 15.49137)
(80.96549 69.53447 15.49137)
(76.6738 89.72537 8)
(84.06097 91.29533 11)
(87.75456 92.08032 11)
(80.36739 90.51035 11)
(100.957 94.88618 11)
(94.61289 93.5379 11)
(113.6344 90.7832 11)
(110.4678 93.50883 11)
(91.18373 92.8091 11)
(86.59357 69.53447 54.253)
(92.22166 69.53447 54.253)
(95.03889 69.53447 54.253)
(107.7513 69.53447 54.253)
(120.4637 69.53447 54.253)
(133.1762 69.53447 54.253)
(119.4787 85.75287 15.49137)
(119.4787 85.75287 19.98274)
(119.4787 85.75287 11)
(141.1324 79.36447 11)
(141.1324 79.36447 8)
(141.1324 79.36447 15.49137)
(141.1324 79.36447 19.98274)
(119.4787 85.75287 37.11787)
(141.1324 79.36447 31.40616)
(141.1324 79.36447 42.82958)
(85.27795 85.70622 19.98274)
(106.5894 85.88702 19.98274)
(106.5894 85.88702 11)
(96.37769 83.71647 15.49137)
(85.27795 85.70622 11)
)

// edges

126
(
(28 29)
(30 28)
(31 32)
(33 31)
(34 33)
(32 35)
(36 0)
(37 38)
(0 37)
(35 36)
(1 34)
(39 2)
(2 40)
(40 1)
(41 39)
(38 42)
(18 43)
(43 3)
(3 44)
(44 45)
(45 19)
(4 46)
(47 4)
(46 5)
(5 41)
(19 47)
(42 18)
(48 3)
(29 48)
(49 5)
(50 49)
(51 52)
(4 51)
(53 52)
(54 53)
(55 56)
(56 50)
(30 57)
(57 58)
(59 60)
(61 6)
(6 62)
(60 61)
(58 59)
(63 6)
(20 63)
(64 2)
(62 21)
(7 65)
(23 7)
(65 66)
(66 8)
(8 24)
(67 7)
(9 67)
(68 9)
(69 70)
(70 71)
(71 10)
(10 68)
(9 72)
(72 73)
(74 8)
(11 74)
(73 11)
(75 20)
(11 75)
(76 54)
(12 76)
(21 12)
(77 55)
(13 77)
(12 13)
(25 78)
(78 24)
(26 79)
(79 22)
(80 23)
(27 80)
(64 81)
(81 69)
(14 82)
(27 14)
(82 1)
(83 84)
(85 83)
(14 85)
(15 0)
(86 15)
(87 86)
(88 25)
(15 89)
(89 88)
(90 84)
(87 90)
(91 92)
(10 91)
(93 94)
(92 93)
(95 96)
(94 95)
(96 13)
(97 98)
(99 97)
(18 99)
(100 101)
(101 19)
(102 100)
(103 102)
(98 104)
(104 20)
(105 103)
(21 106)
(106 105)
(107 23)
(22 107)
(108 16)
(16 22)
(24 108)
(25 109)
(17 110)
(109 17)
(110 16)
(17 26)
(26 111)
(111 27)
)

// concaveStart mixedStart nonFeatureStart
16 18 28
// internalStart flatStart openStart multipleStart
102 126 126 126
// normals

212
(
(-0.2079145 0.978147 0)
(0.9781477 0.2079114 0)
(-0.2079145 0.978147 0)
(0.9781477 0.2079114 0)
(0 0 -1)
(-0.2078818 0.978154 0)
(0 0 -1)
(-0.2078843 0.9781534 0)
(0 -0 -1)
(-0.2078824 0.9781538 0)
(0 0 -1)
(-0.2078843 0.9781534 0)
(0 0 -1)
(-0.2078824 0.9781538 0)
(0 0 -1)
(0.6523557 0.7579129 0)
(0 -0 -1)
(0.6523557 0.7579129 0)
(0 0 -1)
(-0.2078835 0.9781536 0)
(0 0 -1)
(-0.2078824 0.9781538 0)
(0 0 -1)
(0 -1 0)
(-0.9781478 -0.2079107 3.348505e-06)
(0 0 -1)
(-0.9781477 -0.2079114 0)
(0 0 -1)
(0 -1 0)
(0 0 -1)
(0.6523568 0.757912 0)
(-0 0 -1)
(-0.2079145 0.978147 0)
(-0 0 -1)
(-0.2079145 0.978147 0)
(0.9781477 0.2079114 0)
(0 0 -1)
(0.9781485 -0.2079074 0)
(0 0 -1)
(0.9781491 -0.2079045 0)
(0 0 -1)
(0.9748957 -0.2226622 0)
(-0 0 -1)
(0.257774 0.9662052 0)
(0 0 -1)
(0.9748965 -0.2226587 0)
(0 0 -1)
(0 -1 -0)
(0 -0 -1)
(0.2577751 0.9662049 -0)
(0 0 -1)
(0.6523563 0.7579125 0)
(0.9781477 0.2079114 0)
(-0.2079145 0.978147 0)
(0.9781477 0.2079114 0)
(0 -1 0)
(0.9748965 -0.2226587 0)
(0 -1 0)
(0.9748957 -0.2226622 0)
(0.257774 0.9662052 -0)
(0.257774 0.9662052 0)
(0.9748957 -0.2226622 0)
(0.257774 0.9662052 -0)
(0.9748957 -0.2226622 0)
(0.9748965 -0.2226587 0)
(-0 -1 -0)
(0.9748965 -0.2226587 0)
(0 -1 -0)
(0.9781477 0.2079114 0)
(-0.2079145 0.978147 0)
(0.9781477 0.2079114 0)
(-0.2079145 0.978147 0)
(0.9781477 0.2079114 0)
(-0.2079145 0.978147 0)
(0.9781477 0.2079114 0)
(-0.2079145 0.978147 0)
(0 0 1)
(0.9781477 0.2079114 0)
(-0.2079145 0.978147 0)
(0.9781477 0.2079114 0)
(-0.2079145 0.978147 0)
(-0.2079145 0.978147 0)
(0 0 1)
(-0.9781487 -0.2079067 0)
(0.9781488 -0.207906 -4.355195e-07)
(0 -0 1)
(0 0 -1)
(-0.207883 0.9781537 0)
(0 0 -1)
(-0.978146 -0.2079194 -0)
(0 0 -1)
(-0.207883 0.9781537 0)
(0 0 -1)
(-0.207883 0.9781537 0)
(0.6523561 0.7579126 -4.551567e-07)
(-0.207883 0.9781537 0)
(-0.9781477 -0.2079114 -0)
(-0.207883 0.9781537 0)
(-0.9781477 -0.2079114 0)
(0 -0 1)
(-0.9781487 -0.2079067 0)
(0 -1 0)
(-0.9781478 -0.2079108 0)
(0 -1 0)
(-0.9781478 -0.2079108 0)
(-0 -1 0)
(-0.9781478 -0.2079107 9.257199e-08)
(0 0 1)
(0 0 1)
(-0.207883 0.9781537 0)
(0 -0 1)
(0.6523558 0.7579128 -0)
(-0.207883 0.9781537 0)
(0.6523558 0.7579128 0)
(-0.207883 0.9781537 0)
(0 0 1)
(0.6523563 0.7579125 2.207718e-07)
(0 0 1)
(0.6523561 0.7579126 4.551568e-07)
(0 0 1)
(0.2577772 0.9662044 0)
(0.9748957 -0.2226622 0)
(0.2577772 0.9662044 0)
(0.9748957 -0.2226622 0)
(0.2577746 0.9662051 -1.147738e-07)
(0 0 1)
(0.9748957 -0.2226622 0)
(0 -1 0)
(0.9748957 -0.2226622 0)
(0 -1 0)
(0.9748961 -0.2226605 -4.340713e-07)
(0 -0 1)
(0.6523563 0.7579125 0)
(-0.2079103 0.9781479 0)
(0.6523563 0.7579125 0)
(-0.2079103 0.9781479 0)
(0.6953778 0.7186444 0)
(-0.2078826 0.9781538 0)
(0.6953778 0.7186444 0)
(-0.2078826 0.9781538 0)
(-0.2078835 0.9781536 0)
(-0.9781483 -0.2079082 -0)
(-0.2078835 0.9781536 0)
(-0.9781483 -0.2079082 -0)
(-0.9781487 -0.2079067 -0)
(0 -1 0)
(-0.9781487 -0.2079067 -0)
(0 -1 0)
(-0.978146 -0.2079194 0)
(-0.2078824 0.9781538 0)
(0 0 1)
(-0.2078843 0.9781534 0)
(-0 0 1)
(-0.2078824 0.9781538 0)
(0 0 1)
(0 0 1)
(-0.2078824 0.9781538 0)
(0 0 1)
(-0.2078835 0.9781536 0)
(0 0 1)
(0.6523568 0.757912 -0)
(0 0 1)
(0.6523557 0.7579129 -0)
(0 0 1)
(0.6523557 0.7579129 0)
(-0 0 1)
(0 0 1)
(-0.2078818 0.978154 0)
(0 0 1)
(-0.2078843 0.9781534 0)
(0 0 1)
(-0 -1 0)
(0 0 1)
(0 0 1)
(0 -1 0)
(0 0 1)
(0 -1 0)
(0 0 1)
(0 -1 0)
(0 0 1)
(-0 -1 0)
(0 -0 1)
(-0.2079145 0.978147 0)
(0.6523563 0.7579125 0)
(-0.2079145 0.978147 0)
(0.6523563 0.7579125 0)
(0.9781491 -0.2079045 0)
(0.2577751 0.9662049 -0)
(0.9781491 -0.2079045 0)
(0.2577751 0.9662049 -0)
(0.9781491 -0.2079045 0)
(0.2577751 0.9662049 -0)
(-0.2079145 0.978147 0)
(0.652357 0.7579118 0)
(0.652357 0.7579118 0)
(0.9781491 -0.2079045 0)
(0.2577772 0.9662044 0)
(0.9781491 -0.2079045 0)
(0.2577772 0.9662044 0)
(0.9781491 -0.2079045 0)
(0.2577772 0.9662044 0)
(-0 0 -1)
(0 0 -1)
(-0.2079102 0.9781479 0)
(-0 0 -1)
(0 0 1)
(-0.2079102 0.9781479 0)
(0.6953778 0.7186444 0)
(0 0 1)
(0.6953778 0.7186444 0)
(0 0 1)
(0 -0 1)
)

// normal volume types

212
(
0
0
0
0
0
0
0
0
0
0
0
0
0
0
0
0
0
0
0
0
0
0
0
0
0
0
0
0
0
0
0
0
0
0
0
0
0
0
0
0
0
0
0
0
0
0
0
0
0
0
0
0
0
0
0
0
0
0
0
0
0
0
0
0
0
0
0
0
0
0
0
0
0
0
0
0
0
0
0
0
0
0
0
0
0
0
0
0
0
0
0
0
0
0
0
0
0
0
0
0
0
0
0
0
0
0
0
0
0
0
0
0
0
0
0
0
0
0
0
0
0
0
0
0
0
0
0
0
0
0
0
0
0
0
0
0
0
0
0
0
0
0
0
0
0
0
0
0
0
0
0
0
0
0
0
0
0
0
0
0
0
0
0
0
0
0
0
0
0
0
0
0
0
0
0
0
0
0
0
0
0
0
0
0
0
0
0
0
0
0
0
0
0
0
0
0
0
0
0
0
0
0
0
0
0
0
0
0
0
0
0
0
)

// normalDirections

126
(
2(1 -1)
2(1 -1)
2(1 -1)
2(1 -1)
2(1 -1)
2(1 -1)
2(1 -1)
2(1 -1)
2(1 -1)
2(1 -1)
2(1 -1)
2(1 -1)
2(1 -1)
2(1 -1)
2(1 -1)
2(1 -1)
2(1 -1)
2(1 -1)
2(1 -1)
2(1 -1)
2(1 -1)
2(1 -1)
2(1 -1)
2(1 -1)
2(1 -1)
2(1 -1)
2(1 -1)
2(1 -1)
2(1 -1)
2(1 -1)
2(1 -1)
2(1 -1)
2(1 -1)
2(1 -1)
2(1 -1)
2(1 -1)
2(1 -1)
2(1 -1)
2(1 -1)
2(1 -1)
2(1 -1)
2(1 -1)
2(1 -1)
2(1 -1)
2(1 -1)
2(1 -1)
2(1 -1)
2(1 -1)
2(1 -1)
2(1 -1)
2(1 -1)
2(1 -1)
2(1 -1)
2(1 -1)
2(1 -1)
2(1 -1)
2(1 -1)
2(1 -1)
2(1 -1)
2(1 -1)
2(1 -1)
2(1 -1)
2(1 -1)
2(1 -1)
2(1 -1)
2(1 -1)
2(1 -1)
2(1 -1)
2(1 -1)
2(1 -1)
2(1 -1)
2(1 -1)
2(1 -1)
2(1 -1)
2(1 -1)
2(1 -1)
2(1 -1)
2(1 -1)
2(1 -1)
2(1 -1)
2(1 -1)
2(1 -1)
2(1 -1)
2(1 -1)
2(1 -1)
2(1 -1)
2(1 -1)
2(1 -1)
2(1 -1)
2(1 -1)
2(1 -1)
2(1 -1)
2(1 -1)
2(1 -1)
2(1 -1)
2(1 -1)
2(1 -1)
2(1 -1)
2(1 -1)
2(1 -1)
2(1 -1)
2(1 -1)
2(1 -1)
2(1 -1)
2(1 -1)
2(1 -1)
2(1 -1)
2(1 -1)
2(1 -1)
2(1 -1)
2(1 -1)
2(1 -1)
2(1 -1)
2(1 -1)
2(1 -1)
2(1 -1)
2(1 -1)
2(1 -1)
2(1 -1)
2(1 -1)
2(1 -1)
2(1 -1)
2(1 -1)
2(1 -1)
2(1 -1)
2(1 -1)
)

// edgeNormals

126
(
2(0 1)
2(2 3)
2(4 5)
2(6 7)
2(8 9)
2(10 11)
2(12 13)
2(14 15)
2(16 17)
2(18 19)
2(20 21)
2(22 23)
2(22 24)
2(25 26)
2(27 28)
2(29 30)
2(31 32)
2(33 34)
2(33 35)
2(36 37)
2(38 39)
2(40 41)
2(42 43)
2(44 45)
2(46 47)
2(48 49)
2(50 51)
2(34 52)
2(53 54)
2(45 55)
2(56 57)
2(58 59)
2(41 43)
2(60 61)
2(62 63)
2(64 65)
2(66 67)
2(68 69)
2(70 71)
2(72 73)
2(74 75)
2(74 76)
2(77 78)
2(79 80)
2(75 76)
2(81 82)
2(23 83)
2(84 85)
2(86 87)
2(88 89)
2(90 91)
2(92 93)
2(92 94)
2(89 95)
2(96 97)
2(98 99)
2(100 101)
2(102 103)
2(104 105)
2(106 107)
2(97 108)
2(109 110)
2(93 111)
2(112 113)
2(114 115)
2(116 117)
2(118 119)
2(120 121)
2(122 123)
2(124 125)
2(126 127)
2(128 129)
2(130 131)
2(132 133)
2(134 135)
2(136 137)
2(138 139)
2(140 141)
2(142 143)
2(144 145)
2(146 147)
2(148 149)
2(148 150)
2(26 21)
2(151 152)
2(153 154)
2(149 155)
2(156 17)
2(156 157)
2(158 159)
2(160 161)
2(162 163)
2(164 165)
2(166 167)
2(168 169)
2(170 171)
2(172 105)
2(173 174)
2(175 176)
2(177 178)
2(179 180)
2(181 129)
2(182 183)
2(184 185)
2(32 51)
2(186 187)
2(39 49)
2(188 189)
2(190 191)
2(192 193)
2(81 194)
2(195 196)
2(197 198)
2(199 200)
2(88 140)
2(201 139)
2(202 203)
2(202 138)
2(204 135)
2(133 205)
2(206 207)
2(206 208)
2(203 209)
2(207 210)
2(137 211)
2(142 150)
)

// featurePointNormals

28
(
3(12 13 17)
3(20 21 26)
3(22 23 24)
3(33 34 35)
3(40 41 43)
3(44 45 47)
3(74 75 76)
3(86 87 89)
3(92 93 94)
3(96 97 99)
3(104 105 107)
3(112 113 115)
3(122 123 125)
3(128 129 131)
3(148 149 150)
3(156 17 157)
3(202 203 138)
3(206 207 208)
3(31 32 51)
3(38 39 49)
3(81 82 116)
3(84 85 124)
3(138 139 201)
3(88 89 140)
3(92 94 135)
3(132 133 161)
3(136 137 210)
3(142 143 150)
)

// featurePointEdges

28
(
3(8 87 6)
3(13 83 10)
3(11 46 12)
3(17 27 18)
3(22 32 21)
3(24 29 23)
3(40 44 41)
3(49 53 48)
3(51 62 52)
3(55 60 54)
3(59 96 58)
3(64 66 63)
3(69 72 68)
3(72 101 71)
3(81 86 82)
3(87 91 88)
3(116 122 117)
3(120 123 121)
3(16 104 26)
3(25 106 20)
3(110 65 45)
3(47 69 112)
3(115 76 117)
3(49 77 114)
3(118 74 52)
3(73 119 90)
3(75 124 123)
3(78 82 125)
)

// regionEdges
0()


// ************************************************************************* //
