/*--------------------------------*- C++ -*----------------------------------*\
| =========                 |                                                 |
| \\      /  F ield         | OpenFOAM: The Open Source CFD Toolbox           |
|  \\    /   O peration     | Version:  v2012                                 |
|   \\  /    A nd           | Website:  www.openfoam.com                      |
|    \\/     M anipulation  |                                                 |
\*---------------------------------------------------------------------------*/
FoamFile
{
    version     2.0;
    format      ascii;
    class       extendedFeatureEdgeMesh;
    location    "constant/extendedFeatureEdgeMesh";
    object      building.extendedFeatureEdgeMesh;
}
// * * * * * * * * * * * * * * * * * * * * * * * * * * * * * * * * * * * * * //

// points

99
(
(76.6738 89.72537 5)
(76.6738 89.72537 49.9)
(175.1266 53.15396 49.9)
(175.1266 95.39677 49.9)
(141.1324 79.36447 49.9)
(162.5476 107.976 49.9)
(60.817 53.15396 49.9)
(54.06483 84.92027 49.9)
(107.3011 96.23447 49.9)
(119.4787 85.75287 49.9)
(60.817 53.15396 5)
(175.1266 53.15396 5)
(175.1266 95.39677 5)
(162.5476 107.976 5)
(107.3011 96.23447 5)
(119.4787 85.75287 5)
(141.1324 79.36447 5)
(54.06483 84.92027 5)
(96.37769 83.71647 11)
(96.37769 83.71647 19.98274)
(80.96549 69.53447 5)
(77.8631 84.13037 11)
(77.8631 84.13037 19.98274)
(80.96549 69.53447 49.9)
(76.6738 89.72537 19.98274)
(76.6738 89.72537 11)
(145.8886 69.53447 49.9)
(147.7316 77.60387 49.9)
(142.8858 90.72827 49.9)
(107.3011 96.23447 11)
(107.3011 96.23447 19.98274)
(116.8011 88.05757 11)
(116.8011 88.05757 19.98274)
(142.8858 90.72827 5)
(147.7316 77.60387 5)
(145.8886 69.53447 5)
(92.69279 87.28207 11)
(92.69279 87.28207 19.98274)
(175.1266 74.27536 49.9)
(156.075 53.15396 49.9)
(143.2168 89.17107 49.9)
(137.0234 53.15396 49.9)
(144.1321 104.0621 49.9)
(125.7166 100.1483 49.9)
(124.2476 69.53447 49.9)
(117.9718 53.15396 49.9)
(98.9202 53.15396 49.9)
(102.6065 69.53447 49.9)
(79.8686 53.15396 49.9)
(57.44091 69.03712 49.9)
(131.1823 88.24057 49.9)
(65.36932 87.32282 49.9)
(79.8686 53.15396 5)
(60.817 53.15396 27.45)
(98.9202 53.15396 5)
(117.9718 53.15396 5)
(137.0234 53.15396 5)
(60.817 53.15396 32.21129)
(156.075 53.15396 5)
(175.1266 53.15396 27.45)
(175.1266 53.15396 31.29687)
(175.1266 53.15396 35.14373)
(175.1266 95.39677 27.45)
(162.5476 107.976 27.45)
(175.1266 95.39677 35.14373)
(144.1321 104.0621 5)
(125.7166 100.1483 5)
(119.4787 85.75287 27.45)
(131.1823 88.24057 5)
(143.2168 89.17107 5)
(141.1324 79.36447 19.96667)
(141.1324 79.36447 34.93333)
(124.2476 69.53447 5)
(102.6065 69.53447 5)
(175.1266 74.27536 5)
(57.44091 69.03712 5)
(65.36932 87.32282 5)
(85.27795 85.70622 11)
(91.98744 92.97992 11)
(106.5894 85.88702 11)
(85.27795 85.70622 19.98274)
(91.98744 92.97992 19.98274)
(106.5894 85.88702 19.98274)
(96.37769 83.71647 15.49137)
(54.06483 84.92027 27.45)
(54.06483 84.92027 32.21129)
(54.06483 84.92027 32.5414)
(80.96549 69.53447 27.45)
(142.8858 90.72827 24.24286)
(142.8858 90.72827 30.65714)
(142.8858 90.72827 11.41429)
(142.8858 90.72827 17.82857)
(142.8858 90.72827 37.07143)
(142.8858 90.72827 43.48571)
(147.7316 77.60387 19.96667)
(147.7316 77.60387 34.93333)
(145.8886 69.53447 19.96667)
(145.8886 69.53447 34.93333)
(92.69279 87.28207 15.49137)
)

// edges

118
(
(20 0)
(24 1)
(1 23)
(0 25)
(2 38)
(38 3)
(39 2)
(4 27)
(27 26)
(40 4)
(41 39)
(3 5)
(5 42)
(42 43)
(28 40)
(26 44)
(45 41)
(46 45)
(44 47)
(47 23)
(48 46)
(49 6)
(6 48)
(7 49)
(50 28)
(9 50)
(1 51)
(51 7)
(43 8)
(8 9)
(10 52)
(53 10)
(54 55)
(55 56)
(52 54)
(57 53)
(6 57)
(56 58)
(58 11)
(11 59)
(59 60)
(60 61)
(61 2)
(12 13)
(62 12)
(13 63)
(64 62)
(63 5)
(3 64)
(13 65)
(65 66)
(14 29)
(66 14)
(30 8)
(14 15)
(67 9)
(15 67)
(15 68)
(68 33)
(33 69)
(69 16)
(70 71)
(71 4)
(16 70)
(16 34)
(34 35)
(35 72)
(73 20)
(72 73)
(74 11)
(12 74)
(10 75)
(75 17)
(76 0)
(17 76)
(36 77)
(25 78)
(77 21)
(18 36)
(79 18)
(31 79)
(78 29)
(80 37)
(81 24)
(22 80)
(37 19)
(19 82)
(82 32)
(30 81)
(83 19)
(18 83)
(84 85)
(17 84)
(85 86)
(86 7)
(87 20)
(21 22)
(23 87)
(22 24)
(25 21)
(31 29)
(30 32)
(32 31)
(88 89)
(33 90)
(90 91)
(91 88)
(89 92)
(93 28)
(92 93)
(34 94)
(95 27)
(94 95)
(35 96)
(97 26)
(96 97)
(98 37)
(36 98)
)

// concaveStart mixedStart nonFeatureStart
20 20 38
// internalStart flatStart openStart multipleStart
95 118 118 118
// normals

197
(
(0.9781477 0.207911 -8.192705e-06)
(0 0 -1)
(0.978146 0.2079194 0)
(-0.2078875 0.9781527 0)
(0.9781477 0.207911 1.643073e-06)
(0 0 1)
(0.978146 0.2079194 -0)
(-0.2078875 0.9781527 0)
(-0 0 1)
(1 0 -0)
(0 0 1)
(1 0 -0)
(0 0 1)
(-0 -1 0)
(0 0 1)
(-0.2577746 -0.9662051 0)
(0 0 1)
(-0.9748961 0.2226605 0)
(0 0 1)
(-0.9781488 0.207906 0)
(0 0 1)
(0 -1 0)
(0 0 1)
(0.7071121 0.7071014 -0)
(-0 0 1)
(-0.2078862 0.978153 0)
(0 0 1)
(-0.2078862 0.978153 0)
(0 0 1)
(-0.9781477 -0.2079114 0)
(0 -0 1)
(0 1 -0)
(0 0 1)
(0 -1 0)
(0 0 1)
(0 -1 0)
(-0 0 1)
(0 1 0)
(0 -0 1)
(0 1 0)
(0 0 1)
(-0 -1 0)
(-0 0 1)
(-0.9781474 -0.2079125 -0)
(0 -0 1)
(0 -1 0)
(0 -0 1)
(-0.9781474 -0.2079124 -1.074781e-07)
(0 0 1)
(0.2079145 -0.978147 0)
(0 0 1)
(0.2079145 -0.978147 0)
(-0.2078875 0.9781527 0)
(-0 0 1)
(-0.2078882 0.9781526 0)
(-0 0 1)
(-0.2078861 0.978153 1.485455e-07)
(0 -0 1)
(-0.6523561 -0.7579126 0)
(0 -1 -0)
(0 0 -1)
(0 -1 0)
(-0.9781474 -0.2079125 0)
(0 -1 0)
(0 -0 -1)
(0 -1 0)
(0 0 -1)
(0 -1 0)
(0 0 -1)
(0 -1 0)
(-0.9781474 -0.2079125 0)
(0 -1 0)
(-0.9781474 -0.2079125 0)
(0 -1 -0)
(0 -0 -1)
(0 -1 -0)
(0 0 -1)
(0 -1 0)
(1 -0 0)
(0 -1 0)
(1 0 0)
(0 -1 0)
(1 0 0)
(0 -1 0)
(1 -0 0)
(0.7071121 0.7071014 0)
(0 -0 -1)
(1 0 0)
(0.7071121 0.7071014 0)
(-0.2078862 0.978153 0)
(0.7071121 0.7071014 0)
(1 0 -0)
(0.7071121 0.7071014 0)
(0 0 -1)
(-0.2078862 0.978153 0)
(0 0 -1)
(-0.2078861 0.978153 0)
(-0.6523554 -0.7579132 0)
(0 0 -1)
(-0.2078864 0.978153 0)
(-0.6523561 -0.7579126 1.90395e-06)
(0 0 -1)
(-0.6523586 -0.7579105 -0)
(-0.6523586 -0.7579105 0)
(0.2079145 -0.978147 0)
(0 -0 -1)
(0.2079145 -0.978147 0)
(0 -0 -1)
(-0.9781477 -0.2079114 -0)
(0 0 -1)
(-0.9781488 0.207906 0)
(0 0 -1)
(-0.9781488 0.207906 0)
(-0.2577746 -0.9662051 -0)
(-0.9781488 0.207906 0)
(-0.2577746 -0.9662051 -0)
(-0.9781488 0.207906 0)
(-0.2577746 -0.9662051 -0)
(0 0 -1)
(-0.9748961 0.2226605 0)
(-0 0 -1)
(0 1 0)
(0 0 -1)
(0 1 0)
(0 0 -1)
(0 1 -0)
(0 0 -1)
(0 0 -1)
(1 0 0)
(0 -0 -1)
(0 0 -1)
(-0.9781474 -0.2079125 0)
(0 0 -1)
(-0.9781474 -0.2079124 0)
(0 0 -1)
(-0.2078882 0.9781526 0)
(-0 0 -1)
(0.2078826 -0.9781538 0)
(0 0 -1)
(-0.2078831 0.9781537 0)
(0 0 -1)
(0.2078835 -0.9781536 0)
(0 0 -1)
(-0.6953778 -0.7186444 0)
(0.2079102 -0.9781479 0)
(0 0 -1)
(0.2079109 -0.9781478 0)
(0 0 -1)
(-0.207883 0.9781537 0)
(0 0 1)
(0.2078826 -0.9781538 0)
(-0 0 1)
(-0.2078831 0.9781537 0)
(0 0 1)
(0.2078835 -0.9781536 0)
(0 0 1)
(-0.6953778 -0.7186444 0)
(0.2079102 -0.9781479 0)
(0 -0 1)
(0.2079109 -0.9781478 0)
(0 0 1)
(-0.207883 0.9781537 0)
(-0.6953778 -0.7186444 0)
(-0.2078892 0.9781524 0)
(-0.9781471 -0.2079139 0)
(-0.207888 0.9781526 0)
(-0.9781474 -0.2079126 0)
(-0.2078892 0.9781524 0)
(-0.978147 -0.2079147 0)
(-0.2078903 0.9781522 0)
(-0.9781474 -0.2079126 -0)
(0.9781484 0.2079078 0)
(0.9781484 0.2079078 0)
(0.9781484 0.2079078 -0)
(0 -0 -1)
(-0.6523554 -0.7579132 -4.894672e-07)
(0 0 1)
(-0.6523586 -0.7579105 -0)
(0.2079145 -0.978147 0)
(-0.9781477 -0.2079114 -0)
(0.2079145 -0.978147 0)
(-0.9781477 -0.2079114 -0)
(0.2079145 -0.978147 0)
(-0.9781477 -0.2079114 -0)
(0.2079145 -0.978147 0)
(-0.9781477 -0.2079114 -0)
(-0.9781477 -0.2079114 -0)
(0.2079145 -0.978147 0)
(-0.9781477 -0.2079114 -0)
(-0.2577746 -0.9662051 0)
(-0.9748961 0.2226605 0)
(-0.2577746 -0.9662051 0)
(-0.9748961 0.2226605 0)
(-0.9748961 0.2226605 0)
(-0.9748961 0.2226605 0)
(0 1 -0)
(-0.6953778 -0.7186444 0)
)

// normal volume types

197
(
0
0
0
0
0
0
0
0
0
0
0
0
0
0
0
0
0
0
0
0
0
0
0
0
0
0
0
0
0
0
0
0
0
0
0
0
0
0
0
0
0
0
0
0
0
0
0
0
0
0
0
0
0
0
0
0
0
0
0
0
0
0
0
0
0
0
0
0
0
0
0
0
0
0
0
0
0
0
0
0
0
0
0
0
0
0
0
0
0
0
0
0
0
0
0
0
0
0
0
0
0
0
0
0
0
0
0
0
0
0
0
0
0
0
0
0
0
0
0
0
0
0
0
0
0
0
0
0
0
0
0
0
0
0
0
0
0
0
0
0
0
0
0
0
0
0
0
0
0
0
0
0
0
0
0
0
0
0
0
0
0
0
0
0
0
0
0
0
0
0
0
0
0
0
0
0
0
0
0
0
0
0
0
0
0
0
0
0
0
0
0
0
0
0
0
0
0
)

// normalDirections

118
(
2(1 -1)
2(1 -1)
2(1 -1)
2(1 -1)
2(1 -1)
2(1 -1)
2(1 -1)
2(1 -1)
2(1 -1)
2(1 -1)
2(1 -1)
2(1 -1)
2(1 -1)
2(1 -1)
2(1 -1)
2(1 -1)
2(1 -1)
2(1 -1)
2(1 -1)
2(1 -1)
2(1 -1)
2(1 -1)
2(1 -1)
2(1 -1)
2(1 -1)
2(1 -1)
2(1 -1)
2(1 -1)
2(1 -1)
2(1 -1)
2(1 -1)
2(1 -1)
2(1 -1)
2(1 -1)
2(1 -1)
2(1 -1)
2(1 -1)
2(1 -1)
2(1 -1)
2(1 -1)
2(1 -1)
2(1 -1)
2(1 -1)
2(1 -1)
2(1 -1)
2(1 -1)
2(1 -1)
2(1 -1)
2(1 -1)
2(1 -1)
2(1 -1)
2(1 -1)
2(1 -1)
2(1 -1)
2(1 -1)
2(1 -1)
2(1 -1)
2(1 -1)
2(1 -1)
2(1 -1)
2(1 -1)
2(1 -1)
2(1 -1)
2(1 -1)
2(1 -1)
2(1 -1)
2(1 -1)
2(1 -1)
2(1 -1)
2(1 -1)
2(1 -1)
2(1 -1)
2(1 -1)
2(1 -1)
2(1 -1)
2(1 -1)
2(1 -1)
2(1 -1)
2(1 -1)
2(1 -1)
2(1 -1)
2(1 -1)
2(1 -1)
2(1 -1)
2(1 -1)
2(1 -1)
2(1 -1)
2(1 -1)
2(1 -1)
2(1 -1)
2(1 -1)
2(1 -1)
2(1 -1)
2(1 -1)
2(1 -1)
2(1 -1)
2(1 -1)
2(1 -1)
2(1 -1)
2(1 -1)
2(1 -1)
2(1 -1)
2(1 -1)
2(1 -1)
2(1 -1)
2(1 -1)
2(1 -1)
2(1 -1)
2(1 -1)
2(1 -1)
2(1 -1)
2(1 -1)
2(1 -1)
2(1 -1)
2(1 -1)
2(1 -1)
2(1 -1)
2(1 -1)
)

// edgeNormals

118
(
2(0 1)
2(2 3)
2(4 5)
2(6 7)
2(8 9)
2(10 11)
2(12 13)
2(14 15)
2(16 17)
2(18 19)
2(20 21)
2(22 23)
2(24 25)
2(26 27)
2(28 29)
2(30 31)
2(32 33)
2(34 35)
2(36 37)
2(38 39)
2(40 41)
2(42 43)
2(44 45)
2(46 47)
2(48 49)
2(50 51)
2(5 52)
2(53 54)
2(55 56)
2(57 58)
2(59 60)
2(61 62)
2(63 64)
2(65 66)
2(67 68)
2(69 70)
2(71 72)
2(73 74)
2(75 76)
2(77 78)
2(79 80)
2(81 82)
2(83 84)
2(85 86)
2(85 87)
2(88 89)
2(90 91)
2(23 25)
2(92 11)
2(89 93)
2(94 95)
2(96 97)
2(96 98)
2(99 58)
2(100 101)
2(102 51)
2(103 104)
2(104 105)
2(106 107)
2(108 109)
2(110 111)
2(112 113)
2(114 115)
2(116 117)
2(117 118)
2(119 120)
2(121 122)
2(123 124)
2(125 126)
2(127 128)
2(129 87)
2(130 131)
2(132 133)
2(1 7)
2(134 135)
2(136 137)
2(138 139)
2(140 141)
2(142 143)
2(142 144)
2(145 146)
2(147 148)
2(149 150)
2(151 152)
2(153 154)
2(155 156)
2(155 157)
2(158 159)
2(160 161)
2(156 157)
2(162 144)
2(163 164)
2(165 166)
2(167 168)
2(169 170)
2(171 123)
2(172 141)
2(173 39)
2(2 153)
2(6 140)
2(97 174)
2(175 176)
2(177 159)
2(178 179)
2(106 108)
2(180 181)
2(182 183)
2(184 185)
2(49 186)
2(187 188)
2(189 119)
2(15 190)
2(191 192)
2(193 121)
2(17 31)
2(194 195)
2(150 196)
2(137 143)
)

// featurePointNormals

38
(
3(0 1 7)
3(2 3 5)
3(8 9 13)
3(10 11 23)
3(14 15 19)
3(22 23 25)
3(42 43 45)
3(46 47 54)
3(55 56 58)
3(50 51 58)
3(59 60 62)
3(75 76 78)
3(85 86 87)
3(85 86 89)
3(96 97 98)
3(100 101 104)
3(110 111 117)
3(132 133 135)
3(142 143 144)
3(155 156 157)
3(0 1 123)
3(140 141 172)
3(153 154 172)
3(4 5 39)
3(2 3 151)
3(6 7 138)
3(16 17 31)
3(14 15 17)
3(28 29 49)
3(96 97 147)
3(99 58 160)
3(145 146 97)
3(158 159 175)
3(106 107 108)
3(117 118 119)
3(119 120 121)
3(136 137 143)
3(149 150 156)
)

// featurePointEdges

38
(
3(3 73 0)
3(2 26 1)
3(6 42 4)
3(11 48 5)
3(9 62 7)
3(12 47 11)
3(22 36 21)
3(27 94 23)
3(28 53 29)
3(29 55 25)
3(31 71 30)
3(39 69 38)
3(43 70 44)
3(45 49 43)
3(51 54 52)
3(56 57 54)
3(63 64 60)
3(74 92 72)
3(78 90 79)
3(85 89 86)
3(0 67 95)
3(96 77 99)
3(98 84 96)
3(2 19 97)
3(98 83 1)
3(99 76 3)
3(15 114 8)
3(7 111 8)
3(24 108 14)
3(51 100 81)
3(53 101 88)
3(102 80 100)
3(102 87 101)
3(104 59 58)
3(110 65 64)
3(113 66 65)
3(78 117 75)
3(85 116 82)
)

// regionEdges
0()


// ************************************************************************* //
