/*--------------------------------*- C++ -*----------------------------------*\
| =========                 |                                                 |
| \\      /  F ield         | OpenFOAM: The Open Source CFD Toolbox           |
|  \\    /   O peration     | Version:  v2012                                 |
|   \\  /    A nd           | Website:  www.openfoam.com                      |
|    \\/     M anipulation  |                                                 |
\*---------------------------------------------------------------------------*/
FoamFile
{
    version     2.0;
    format      ascii;
    class       extendedFeatureEdgeMesh;
    location    "constant/extendedFeatureEdgeMesh";
    object      surround.extendedFeatureEdgeMesh;
}
// * * * * * * * * * * * * * * * * * * * * * * * * * * * * * * * * * * * * * //

// points

96
(
(243.1741 117.9381 5)
(243.1741 91.78165 5)
(243.1741 91.78165 59.5)
(243.1741 117.9381 59.5)
(270.6553 91.78165 5)
(270.6553 91.78165 59.5)
(270.6553 117.9381 5)
(270.6553 117.9381 59.5)
(293.4686 120.9522 5)
(293.4686 94.79575 5)
(293.4686 94.79575 59.5)
(293.4686 120.9522 59.5)
(320.9498 94.79575 5)
(320.9498 94.79575 59.5)
(320.9498 120.9522 5)
(320.9498 120.9522 59.5)
(207.5683 -61.72763 5)
(207.5683 -87.88411 5)
(207.5683 -87.88411 59.5)
(207.5683 -61.72763 59.5)
(259.4783 -87.88411 5)
(259.4783 -87.88411 59.5)
(259.4783 -61.72763 5)
(259.4783 -61.72763 59.5)
(207.2943 -21.44823 5)
(207.2943 -47.60471 5)
(207.2943 -47.60471 59.5)
(207.2943 -21.44823 59.5)
(259.2043 -47.60471 5)
(259.2043 -47.60471 59.5)
(259.2043 -21.44823 5)
(259.2043 -21.44823 59.5)
(276.5848 34.50204 5)
(276.5848 8.345561 5)
(276.5848 8.345561 59.5)
(276.5848 34.50204 59.5)
(304.0659 8.345561 5)
(304.0659 8.345561 59.5)
(304.0659 34.50204 5)
(304.0659 34.50204 59.5)
(206.956 34.03024 5)
(206.956 7.87376 5)
(206.956 7.87376 59.5)
(206.956 34.03024 59.5)
(258.866 7.87376 5)
(258.866 7.87376 59.5)
(258.866 34.03024 5)
(258.866 34.03024 59.5)
(206.84 82.52992 5)
(206.84 56.37344 5)
(206.84 56.37344 59.5)
(206.84 82.52992 59.5)
(234.3211 56.37344 5)
(234.3211 56.37344 59.5)
(234.3211 82.52992 5)
(234.3211 82.52992 59.5)
(161.6111 21.39719 5)
(161.6111 -34.61821 5)
(161.6111 -34.61821 36.80334)
(161.6111 21.39719 36.80334)
(182.2173 -34.61821 5)
(182.2173 -34.61821 36.80334)
(182.2173 21.39719 5)
(182.2173 21.39719 36.80334)
(102.7779 -34.45422 5)
(158.7933 -34.45422 5)
(158.7933 -34.45422 36.80334)
(102.7779 -34.45422 36.80334)
(158.7933 -13.84804 5)
(158.7933 -13.84804 36.80334)
(102.7779 -13.84804 5)
(102.7779 -13.84804 36.80334)
(29.69202 -35.28949 5)
(85.70743 -35.28949 5)
(85.70743 -35.28949 36.80334)
(29.69202 -35.28949 36.80334)
(85.70743 -14.68331 5)
(85.70743 -14.68331 36.80334)
(29.69202 -14.68331 5)
(29.69202 -14.68331 36.80334)
(29.69202 -71.52564 5)
(85.70743 -71.52564 5)
(85.70743 -71.52564 36.80334)
(29.69202 -71.52564 36.80334)
(85.70743 -50.91946 5)
(85.70743 -50.91946 36.80334)
(29.69202 -50.91946 5)
(29.69202 -50.91946 36.80334)
(30.2209 0.9606119 5)
(128.4036 0.9606119 5)
(128.4036 0.9606119 43.69632)
(30.2209 0.9606119 43.69632)
(128.4036 37.07874 5)
(128.4036 37.07874 43.69632)
(30.2209 37.07874 5)
(30.2209 37.07874 43.69632)
)

// edges

144
(
(1 2)
(0 1)
(3 0)
(2 3)
(4 5)
(1 4)
(5 2)
(6 7)
(4 6)
(7 5)
(6 0)
(3 7)
(9 10)
(8 9)
(11 8)
(10 11)
(12 13)
(9 12)
(13 10)
(14 15)
(12 14)
(15 13)
(14 8)
(11 15)
(17 18)
(16 17)
(19 16)
(18 19)
(20 21)
(17 20)
(21 18)
(22 23)
(20 22)
(23 21)
(22 16)
(19 23)
(25 26)
(24 25)
(27 24)
(26 27)
(28 29)
(25 28)
(29 26)
(30 31)
(28 30)
(31 29)
(30 24)
(27 31)
(33 34)
(32 33)
(35 32)
(34 35)
(36 37)
(33 36)
(37 34)
(38 39)
(36 38)
(39 37)
(38 32)
(35 39)
(41 42)
(40 41)
(43 40)
(42 43)
(44 45)
(41 44)
(45 42)
(46 47)
(44 46)
(47 45)
(46 40)
(43 47)
(49 50)
(48 49)
(51 48)
(50 51)
(52 53)
(49 52)
(53 50)
(54 55)
(52 54)
(55 53)
(54 48)
(51 55)
(57 58)
(56 57)
(59 56)
(58 59)
(60 61)
(57 60)
(61 58)
(62 63)
(60 62)
(63 61)
(62 56)
(59 63)
(65 66)
(64 65)
(67 64)
(66 67)
(68 69)
(65 68)
(69 66)
(70 71)
(68 70)
(71 69)
(70 64)
(67 71)
(73 74)
(72 73)
(75 72)
(74 75)
(76 77)
(73 76)
(77 74)
(78 79)
(76 78)
(79 77)
(78 72)
(75 79)
(81 82)
(80 81)
(83 80)
(82 83)
(84 85)
(81 84)
(85 82)
(86 87)
(84 86)
(87 85)
(86 80)
(83 87)
(89 90)
(88 89)
(91 88)
(90 91)
(92 93)
(89 92)
(93 90)
(94 95)
(92 94)
(95 93)
(94 88)
(91 95)
)

// concaveStart mixedStart nonFeatureStart
96 96 96
// internalStart flatStart openStart multipleStart
144 144 144 144
// normals

144
(
(-1 0 0)
(0 -1 0)
(0 0 -1)
(-1 0 0)
(0 1 0)
(0 0 1)
(0 -1 0)
(1 0 0)
(1 0 0)
(0 1 -0)
(0 0 -1)
(-0 0 1)
(-1 0 0)
(0 -1 0)
(0 0 -1)
(-1 0 0)
(0 1 0)
(0 0 1)
(0 -1 0)
(1 0 0)
(1 0 0)
(0 1 -0)
(0 0 -1)
(-0 0 1)
(-1 0 0)
(0 -1 0)
(0 0 -1)
(-1 0 0)
(0 1 0)
(0 0 1)
(0 -1 0)
(1 0 0)
(1 0 0)
(0 1 -0)
(0 0 -1)
(-0 0 1)
(-1 0 0)
(0 -1 0)
(0 0 -1)
(-1 0 0)
(0 1 0)
(0 0 1)
(0 -1 0)
(1 0 0)
(1 0 0)
(0 1 -0)
(0 0 -1)
(-0 0 1)
(-1 0 0)
(0 -1 0)
(0 0 -1)
(-1 0 0)
(0 1 0)
(0 0 1)
(0 -1 0)
(1 0 0)
(1 0 0)
(0 1 -0)
(0 0 -1)
(-0 0 1)
(-1 0 0)
(0 -1 0)
(0 0 -1)
(-1 0 0)
(0 1 0)
(0 0 1)
(0 -1 0)
(1 0 0)
(1 0 0)
(0 1 -0)
(0 0 -1)
(-0 0 1)
(-1 0 0)
(0 -1 0)
(0 0 -1)
(-1 0 0)
(0 1 0)
(0 0 1)
(0 -1 0)
(1 0 0)
(1 0 0)
(0 1 -0)
(0 0 -1)
(-0 0 1)
(-1 0 0)
(0 -1 0)
(0 0 -1)
(-1 0 0)
(0 1 0)
(0 0 1)
(0 -1 0)
(1 0 0)
(0 -0 -1)
(0 0 1)
(1 0 0)
(0 1 -0)
(0 -1 0)
(1 0 0)
(0 0 -1)
(0 -1 0)
(-1 0 0)
(0 0 1)
(1 0 0)
(0 1 -0)
(0 0 -1)
(-0 0 1)
(0 1 0)
(-1 0 0)
(0 -1 0)
(1 0 0)
(0 0 -1)
(0 -1 0)
(-1 0 0)
(0 0 1)
(1 0 0)
(0 1 -0)
(0 0 -1)
(-0 0 1)
(0 1 0)
(-1 0 0)
(0 -1 0)
(1 0 0)
(0 0 -1)
(0 -1 0)
(-1 0 0)
(0 0 1)
(1 0 0)
(0 1 -0)
(0 0 -1)
(-0 0 1)
(0 1 0)
(-1 0 0)
(0 -1 0)
(1 0 0)
(0 0 -1)
(0 -1 0)
(-1 0 0)
(0 0 1)
(1 0 0)
(0 1 -0)
(0 0 -1)
(-0 0 1)
(0 1 0)
(-1 0 0)
)

// normal volume types

144
(
0
0
0
0
0
0
0
0
0
0
0
0
0
0
0
0
0
0
0
0
0
0
0
0
0
0
0
0
0
0
0
0
0
0
0
0
0
0
0
0
0
0
0
0
0
0
0
0
0
0
0
0
0
0
0
0
0
0
0
0
0
0
0
0
0
0
0
0
0
0
0
0
0
0
0
0
0
0
0
0
0
0
0
0
0
0
0
0
0
0
0
0
0
0
0
0
0
0
0
0
0
0
0
0
0
0
0
0
0
0
0
0
0
0
0
0
0
0
0
0
0
0
0
0
0
0
0
0
0
0
0
0
0
0
0
0
0
0
0
0
0
0
0
0
)

// normalDirections

144
(
2(1 -1)
2(1 -1)
2(1 -1)
2(1 -1)
2(1 -1)
2(1 -1)
2(1 -1)
2(1 -1)
2(1 -1)
2(1 -1)
2(1 -1)
2(1 -1)
2(1 -1)
2(1 -1)
2(1 -1)
2(1 -1)
2(1 -1)
2(1 -1)
2(1 -1)
2(1 -1)
2(1 -1)
2(1 -1)
2(1 -1)
2(1 -1)
2(1 -1)
2(1 -1)
2(1 -1)
2(1 -1)
2(1 -1)
2(1 -1)
2(1 -1)
2(1 -1)
2(1 -1)
2(1 -1)
2(1 -1)
2(1 -1)
2(1 -1)
2(1 -1)
2(1 -1)
2(1 -1)
2(1 -1)
2(1 -1)
2(1 -1)
2(1 -1)
2(1 -1)
2(1 -1)
2(1 -1)
2(1 -1)
2(1 -1)
2(1 -1)
2(1 -1)
2(1 -1)
2(1 -1)
2(1 -1)
2(1 -1)
2(1 -1)
2(1 -1)
2(1 -1)
2(1 -1)
2(1 -1)
2(1 -1)
2(1 -1)
2(1 -1)
2(1 -1)
2(1 -1)
2(1 -1)
2(1 -1)
2(1 -1)
2(1 -1)
2(1 -1)
2(1 -1)
2(1 -1)
2(1 -1)
2(1 -1)
2(1 -1)
2(1 -1)
2(1 -1)
2(1 -1)
2(1 -1)
2(1 -1)
2(1 -1)
2(1 -1)
2(1 -1)
2(1 -1)
2(1 -1)
2(1 -1)
2(1 -1)
2(1 -1)
2(1 -1)
2(1 -1)
2(1 -1)
2(1 -1)
2(1 -1)
2(1 -1)
2(1 -1)
2(1 -1)
2(1 -1)
2(1 -1)
2(1 -1)
2(1 -1)
2(1 -1)
2(1 -1)
2(1 -1)
2(1 -1)
2(1 -1)
2(1 -1)
2(1 -1)
2(1 -1)
2(1 -1)
2(1 -1)
2(1 -1)
2(1 -1)
2(1 -1)
2(1 -1)
2(1 -1)
2(1 -1)
2(1 -1)
2(1 -1)
2(1 -1)
2(1 -1)
2(1 -1)
2(1 -1)
2(1 -1)
2(1 -1)
2(1 -1)
2(1 -1)
2(1 -1)
2(1 -1)
2(1 -1)
2(1 -1)
2(1 -1)
2(1 -1)
2(1 -1)
2(1 -1)
2(1 -1)
2(1 -1)
2(1 -1)
2(1 -1)
2(1 -1)
2(1 -1)
2(1 -1)
2(1 -1)
2(1 -1)
2(1 -1)
)

// edgeNormals

144
(
2(0 1)
2(0 2)
2(3 4)
2(3 5)
2(6 7)
2(6 2)
2(1 5)
2(8 9)
2(8 10)
2(7 11)
2(4 10)
2(9 11)
2(12 13)
2(12 14)
2(15 16)
2(15 17)
2(18 19)
2(18 14)
2(13 17)
2(20 21)
2(20 22)
2(19 23)
2(16 22)
2(21 23)
2(24 25)
2(24 26)
2(27 28)
2(27 29)
2(30 31)
2(30 26)
2(25 29)
2(32 33)
2(32 34)
2(31 35)
2(28 34)
2(33 35)
2(36 37)
2(36 38)
2(39 40)
2(39 41)
2(42 43)
2(42 38)
2(37 41)
2(44 45)
2(44 46)
2(43 47)
2(40 46)
2(45 47)
2(48 49)
2(48 50)
2(51 52)
2(51 53)
2(54 55)
2(54 50)
2(49 53)
2(56 57)
2(56 58)
2(55 59)
2(52 58)
2(57 59)
2(60 61)
2(60 62)
2(63 64)
2(63 65)
2(66 67)
2(66 62)
2(61 65)
2(68 69)
2(68 70)
2(67 71)
2(64 70)
2(69 71)
2(72 73)
2(72 74)
2(75 76)
2(75 77)
2(78 79)
2(78 74)
2(73 77)
2(80 81)
2(80 82)
2(79 83)
2(76 82)
2(81 83)
2(84 85)
2(84 86)
2(87 88)
2(87 89)
2(90 91)
2(90 92)
2(85 93)
2(94 95)
2(94 92)
2(91 93)
2(88 86)
2(95 89)
2(96 97)
2(96 98)
2(99 100)
2(99 101)
2(102 103)
2(102 104)
2(97 105)
2(106 107)
2(106 104)
2(103 105)
2(100 98)
2(107 101)
2(108 109)
2(108 110)
2(111 112)
2(111 113)
2(114 115)
2(114 116)
2(109 117)
2(118 119)
2(118 116)
2(115 117)
2(112 110)
2(119 113)
2(120 121)
2(120 122)
2(123 124)
2(123 125)
2(126 127)
2(126 128)
2(121 129)
2(130 131)
2(130 128)
2(127 129)
2(124 122)
2(131 125)
2(132 133)
2(132 134)
2(135 136)
2(135 137)
2(138 139)
2(138 140)
2(133 141)
2(142 143)
2(142 140)
2(139 141)
2(136 134)
2(143 137)
)

// featurePointNormals

96
(
3(0 2 4)
3(0 1 2)
3(0 1 5)
3(3 4 5)
3(6 7 2)
3(6 7 5)
3(8 9 10)
3(8 9 11)
3(12 14 16)
3(12 13 14)
3(12 13 17)
3(15 16 17)
3(18 19 14)
3(18 19 17)
3(20 21 22)
3(20 21 23)
3(24 26 28)
3(24 25 26)
3(24 25 29)
3(27 28 29)
3(30 31 26)
3(30 31 29)
3(32 33 34)
3(32 33 35)
3(36 38 40)
3(36 37 38)
3(36 37 41)
3(39 40 41)
3(42 43 38)
3(42 43 41)
3(44 45 46)
3(44 45 47)
3(48 50 52)
3(48 49 50)
3(48 49 53)
3(51 52 53)
3(54 55 50)
3(54 55 53)
3(56 57 58)
3(56 57 59)
3(60 62 64)
3(60 61 62)
3(60 61 65)
3(63 64 65)
3(66 67 62)
3(66 67 65)
3(68 69 70)
3(68 69 71)
3(72 74 76)
3(72 73 74)
3(72 73 77)
3(75 76 77)
3(78 79 74)
3(78 79 77)
3(80 81 82)
3(80 81 83)
3(84 86 88)
3(84 85 86)
3(84 85 89)
3(87 88 89)
3(90 91 92)
3(90 91 93)
3(94 95 92)
3(94 95 93)
3(96 98 100)
3(96 97 98)
3(96 97 101)
3(99 100 101)
3(102 103 104)
3(102 103 105)
3(106 107 104)
3(106 107 105)
3(108 110 112)
3(108 109 110)
3(108 109 113)
3(111 112 113)
3(114 115 116)
3(114 115 117)
3(118 119 116)
3(118 119 117)
3(120 122 124)
3(120 121 122)
3(120 121 125)
3(123 124 125)
3(126 127 128)
3(126 127 129)
3(130 131 128)
3(130 131 129)
3(132 134 136)
3(132 133 134)
3(132 133 137)
3(135 136 137)
3(138 139 140)
3(138 139 141)
3(142 143 140)
3(142 143 141)
)

// featurePointEdges

96
(
3(2 10 1)
3(0 5 1)
3(3 6 0)
3(2 11 3)
3(4 8 5)
3(6 9 4)
3(7 10 8)
3(9 11 7)
3(14 22 13)
3(12 17 13)
3(15 18 12)
3(14 23 15)
3(16 20 17)
3(18 21 16)
3(19 22 20)
3(21 23 19)
3(26 34 25)
3(24 29 25)
3(27 30 24)
3(26 35 27)
3(28 32 29)
3(30 33 28)
3(31 34 32)
3(33 35 31)
3(38 46 37)
3(36 41 37)
3(39 42 36)
3(38 47 39)
3(40 44 41)
3(42 45 40)
3(43 46 44)
3(45 47 43)
3(50 58 49)
3(48 53 49)
3(51 54 48)
3(50 59 51)
3(52 56 53)
3(54 57 52)
3(55 58 56)
3(57 59 55)
3(62 70 61)
3(60 65 61)
3(63 66 60)
3(62 71 63)
3(64 68 65)
3(66 69 64)
3(67 70 68)
3(69 71 67)
3(74 82 73)
3(72 77 73)
3(75 78 72)
3(74 83 75)
3(76 80 77)
3(78 81 76)
3(79 82 80)
3(81 83 79)
3(86 94 85)
3(84 89 85)
3(87 90 84)
3(86 95 87)
3(88 92 89)
3(90 93 88)
3(91 94 92)
3(93 95 91)
3(98 106 97)
3(96 101 97)
3(99 102 96)
3(98 107 99)
3(100 104 101)
3(102 105 100)
3(103 106 104)
3(105 107 103)
3(110 118 109)
3(108 113 109)
3(111 114 108)
3(110 119 111)
3(112 116 113)
3(114 117 112)
3(115 118 116)
3(117 119 115)
3(122 130 121)
3(120 125 121)
3(123 126 120)
3(122 131 123)
3(124 128 125)
3(126 129 124)
3(127 130 128)
3(129 131 127)
3(134 142 133)
3(132 137 133)
3(135 138 132)
3(134 143 135)
3(136 140 137)
3(138 141 136)
3(139 142 140)
3(141 143 139)
)

// regionEdges
0()


// ************************************************************************* //
